24
tyro_dhscan_230deg                          -868.066418 eV 
               O     -3.9679179567371525       1.2363889172450178      -2.2515702819423757   8.939861137766406e-06   2.5969286070412843e-05    4.577168060287023e-05
               O     -0.3704510772446913      -0.3550909085047965       -6.856587254977885  1.5210025654330963e-05  -4.1433975191430864e-05   1.7827028167079916e-05
               O     -3.7701782328556512        2.905156187189627      -0.7658243772797791  2.3947278971847874e-06   -4.709469767574592e-05   -5.286084038365168e-06
               N     -2.0607914243731407       1.2505922607209339       0.6813904606641706 -1.1173515597910622e-05    3.735612415498089e-05  -1.1450041096862815e-05
               C     -1.6411257399387826     -0.15499509200241537      -1.3192559731996714   6.903860171887655e-06    3.852026919236307e-06   1.1203255414118235e-06
               C     -1.9916601648573724       1.2522039682879011      -0.7889874443897339 -1.3277998091719423e-05    4.257958716884398e-05    1.546500596572367e-05
               C     -1.3231638563875556     -0.18240302766295174       -2.799466503414182   3.910056193275058e-06   1.2384356024158771e-06  -2.4744344880337985e-05
               C     -0.3565384798318366       0.6737642092614426       -3.351669043147321   8.857089058417276e-06    9.936541964381384e-07    -8.92295070147542e-06
               C     -1.9503169624420462      -1.1156665552761058      -3.6362165923932253   5.778544035668631e-06  -1.0739650907212739e-05  -2.3045104544537273e-05
               C     -3.3222564898337366        1.749695441364743      -1.3503787826053133 -2.0406717673595147e-05   1.9599664116434758e-05     4.93228148418919e-06
               C    -0.03646043658036785       0.6219358346301289      -4.7070312579380795 -2.4853901521837784e-06    6.964008916064399e-06    4.011555154112912e-06
               C      -1.642578026273199      -1.1837095321064859       -4.995771555384907  2.9329803879512934e-05  -1.2855891983324454e-05   -1.692816606401872e-05
               C     -0.6853085135631118     -0.30840263555513536       -5.531860535466649   3.542367827771106e-05  -1.2669330586321096e-05   1.3707777727784378e-05
               H     -0.7792819454786711      -0.5250874111743342      -0.7472464737979716  1.3479430413166579e-05  -5.3007955215745914e-05   1.9595643989949724e-06
               H     -2.4702225643626723      -0.8348461714902206      -1.1071778991892713  1.1720066536302612e-05  -2.1160579879654888e-05   1.1733391320467022e-05
               H     -1.2130536392081628        1.970253620812565      -1.1420984082722587  1.4860704556162007e-05    8.318309121599461e-06    4.394897956436831e-06
               H      0.1558747551696509       1.3920160635284826      -2.7144964034438956  3.7748931793506233e-06   -5.897477972963552e-06  -1.5282850959022188e-05
               H      -2.700409100199236      -1.7848708342205317      -3.2222703478000922 -2.0171492727327608e-05   1.1289693918612607e-05   1.4789857504919831e-06
               H     -1.1451429404096223       1.0607392318929905       1.0820967607166099  -4.386334204511859e-05    1.092358220236864e-05    -2.37609629923897e-05
               H     -2.3927998150301564       2.1513948835493313       1.0201870025540691 -1.3674359467535118e-06   1.3123801441663408e-05    3.173918225210495e-05
               H      0.7081618887214891         1.29061334077391      -5.1269943735277606  -4.190828224485192e-05   1.6072613844548303e-05   1.4477286995168957e-05
               H     -2.1422659174249774      -1.9055896633415565        -5.63806736747777 -3.7074177890249162e-06    2.398631732124954e-05  -2.3407778565348745e-05
               H        -4.6122437922852       3.1581298708834122      -1.1771784631412519  3.3193256702814345e-05  -2.8643850659291925e-05   -9.388190749844226e-06
               H     -0.8970240085742538      -1.0298593088063452       -7.305067965145458   -3.54144054251386e-05   1.1236305076853583e-05   -6.402488724624752e-06
