24
tyro_dhscan_170deg                          -868.022797 eV 
               O     -1.8174439326050291       2.7149501123843396      -1.3816040624393378  -3.200466255397245e-05    5.549445379225087e-05   -4.216894577712193e-06
               O     -0.3541622134563166      -0.3764690528608613       -6.896028106531345  1.0156689011215487e-05   5.4874651961745844e-06    4.231990972426659e-05
               O     -0.2646317845144168       2.9871454997098965      0.21416062240116823 -3.3440463553394766e-06   -4.201186205035274e-05   3.5990315689491766e-06
               N     -0.9606652490434133      0.34782826148654417       0.9650202089151861  1.2532888695032894e-05  -1.2094878412667804e-05    6.664685530573137e-06
               C     -1.6414368431482902     -0.15749965683295739       -1.356661282405782   3.264273491849698e-05   3.3685967737361044e-05   4.8287661810181466e-05
               C     -0.7443590944650934       0.7041761510251017     -0.45003944100455817  3.6250120292808524e-05   1.3478826182956177e-05    7.985161321800473e-05
               C     -1.2600477811904132      -0.1876370935323164       -2.824352818471483  1.6545587847853482e-05   1.6066602875775687e-06   -5.439067846215763e-05
               C    -0.31429219817190157       0.6769567005894687      -3.3958811659467276  2.5541308632858143e-05    1.646834084842702e-05  -2.8933775118364478e-05
               C     -1.9035998971197479      -1.1168381192376864      -3.6577704551197465  -2.211298240389556e-05  -2.8917397990949056e-06  -5.6069301761170476e-05
               C     -1.0233056828498746       2.1990618253436667       -0.610323886465825   5.119270801693364e-05    3.318656197925204e-05   -6.131152349923345e-05
               C   -0.008102869011421522       0.6158749534350396       -4.755165909484208  1.2519150354832808e-05   5.9540943317142616e-06   -1.796893251926556e-05
               C      -1.611982827709597      -1.1927201110005692       -5.019427434130858  -1.900897822879927e-05   1.7121074748080207e-09    -6.37441697360066e-05
               C     -0.6583454029199655     -0.32070508877939774       -5.569418971710576  -2.796948394466612e-06   2.3871637840801507e-05    9.459604772071318e-06
               H     -1.6425621147388607      -1.1829156461618942      -0.9672771207309776 -1.2836597678275556e-05  -3.3522893372701014e-05   5.0131180520795205e-06
               H     -2.6749552907297165      0.19691482129312596      -1.2585179898926313 -3.6355994498373836e-05  -1.2677452234973823e-05    5.666470145601232e-06
               H      0.3234920506221034       0.5399374775544359      -0.7290874456075679 -1.2896131662525576e-05  -2.7989921416116725e-05   -7.705264037871979e-06
               H      0.1916498533294189       1.4182427388565149      -2.7829233065876804  -4.087795838968234e-05    3.841120495687495e-05    3.072473419569738e-06
               H     -2.6425335846495526      -1.7923491809003633         -3.2326657979007 -2.2917063470504786e-05    7.295146442385267e-06    3.735222352656619e-05
               H      -0.672455516817102      -0.6127835892394398       1.1369118947860688   3.932854633171115e-05   1.5820446143887887e-05    9.230411851524249e-06
               H    -0.42349446358634574       0.9671437560047171        1.568741834458547 -5.2280557924982494e-05    7.203796602867472e-07   -2.633079215526952e-05
               H      0.7232813531059857       1.2915425868027142      -5.1869368396613895  -4.657048319640765e-05    5.785475822902541e-06   6.1306742838700346e-06
               H     -2.1192496521628246      -1.9181750945854241       -5.651595539880241 -2.3248156162948876e-05    -6.20285966505545e-05   1.4541894329721499e-05
               H     -0.5028876862122785       3.9166943205894342      0.06714154338671911  2.5828699675083456e-05  -4.9579800667807765e-05    2.467458807636348e-05
               H     -0.8823536819558034       -1.055454631943947       -7.336012659976813   6.471212714333873e-05  -1.4471228726049444e-05    2.480697155770609e-05
