24
tyro_dhscan_180deg                          -868.019461 eV 
               O     -2.1791661450989475       2.6346562665775832      -1.6265777164911723   6.677085830455372e-06   1.3976664232351626e-05   4.2344064937930324e-05
               O    -0.38050387814932213      -0.3493167742245772       -6.897088916540961  2.7419239788240346e-05   1.3385551464761808e-05   1.6397306634341544e-05
               O     -0.8011586822078317       3.2391335248251627      0.03705890735802976  3.5339733991713364e-05     -3.4129150854282e-05   -6.469447100125117e-05
               N     -1.1326065627914312       0.5902205817252943       0.9511379587032632 -2.7225866017079135e-05  -1.0009890760326179e-05    -9.58590295224807e-06
               C     -1.6194984762498632     -0.17650847308561157      -1.3446057203860688  -9.108076884541128e-08   1.1256160003672924e-05    2.232486668518152e-05
               C     -0.9003693516272173       0.8711527980338717      -0.4781775749630338  -3.764137545226795e-06    1.118910530271619e-05   -8.690979024972203e-07
               C      -1.259916427313544     -0.18133873737161607       -2.818420791447376   2.365546184140109e-05   1.0502535067820687e-05   2.0068075359111134e-06
               C    -0.33071938263931294       0.6974497182676368       -3.394962815508824  2.8662054175622763e-05  -1.7500943513776674e-06   -7.458213428743329e-06
               C     -1.8921966603629037      -1.1214080832248197       -3.648507317504426   1.625431115354157e-05    -5.35529064427543e-06   1.1533475923572673e-05
               C     -1.3788646592325977       2.2938367546522045      -0.7697159455298389 -2.2360255175317792e-05   1.3207132566336813e-05   -2.384510604674446e-05
               C     -0.0340279003163443       0.6441065373100554       -4.756764919309429  -3.675184236094298e-05   1.1540770848856268e-05   -1.380769882339091e-05
               C     -1.6092631850133523      -1.1905457299004014       -5.012169968196592  -8.402246170856996e-06    2.143612812667929e-05    5.062579678221194e-06
               C     -0.6749199864351711      -0.3013929786005607       -5.567897179904838  -4.431514622380642e-05     3.71969287514542e-05    -8.15575625349295e-06
               H     -1.4117407914214584      -1.1686402138030612      -0.9222925271963757  1.6098082965722855e-05  -2.8821450111458086e-05    2.049543503605712e-05
               H      -2.700966648708656     -0.03314473906201993       -1.237417957963399  -3.998520582146056e-05    3.116560414741411e-05   3.1116017262904754e-05
               H      0.1925717821403375       0.8432684342816845      -0.7016097350265031   8.516314118986826e-06  -4.3809416214190385e-05  -1.7903914518014466e-05
               H     0.17001386390899256         1.44475644438362      -2.7847553703666637  2.0654604238327754e-05     9.43382871348871e-06    2.912557776259016e-06
               H     -2.6182753873072437      -1.8082696975258084      -3.2194751051243946 -1.6859996197657632e-05    2.522778719843052e-05    3.767539711332774e-05
               H     -0.7192299140714763      -0.3030665418044207        1.209019406405397 -1.1232083225568257e-05    6.405777240501792e-06    3.564720355186298e-05
               H     -0.7199325926279306       1.3235537681581182       1.5242490198147787  -6.029716653026639e-06    4.834074056063051e-06  -5.6439094585308206e-05
               H      0.6831527345846807       1.3323431544965314       -5.192510483506597 -4.3809556949559226e-05    -4.20785813366501e-05   -3.072448280900565e-05
               H     -2.1094399618373525       -1.922999594624605       -5.641949708226279  5.7257974096970055e-05    -1.69492503517522e-05    2.238026468619761e-05
               H     -1.1571428356559759        4.111474491543488      -0.1968727687714952 -1.5014768434543948e-05   -6.623103870768128e-05   -5.523407838937318e-06
               H     -0.9016516515661122      -1.0354443310277899       -7.334385990317053   3.530703934290491e-05    2.837611561144642e-05  -1.0888830662134932e-05
