24
tyro_dhscan_110deg                          -868.071775 eV 
               O      0.5920230646259661       1.5022596722809503      -0.5173139667610467 -1.3876413777153993e-06    -8.02218464868992e-06   1.5205240073168355e-06
               O    -0.35739032287793265      -0.4110007873452445       -6.879879175284094   6.052383031315221e-06   1.3814607715645292e-05     8.41193189301219e-06
               O      1.4237587028597523    -0.061030994280161795       0.8558006522447255 -4.1853195920683804e-06    1.184319521288074e-05    -9.97011212023804e-07
               N     -1.1088687778625281       -1.225234212689108       0.8113098829651022   9.275517321231478e-06  -1.9874244614113914e-05   -3.168873159712618e-07
               C      -1.650058218849632     -0.12275826869856664      -1.3519222717526507   7.478916854677248e-06    8.241206142071272e-06    1.648084832230664e-05
               C     -0.5322245760200313      -0.6859835767903006       -0.432987418979426 -2.1080849135933152e-05  -1.2632176641186321e-05   2.1574422672905472e-05
               C     -1.3013038309866645     -0.19596356427325246       -2.824557382457705 -2.7392006728688134e-06  -2.9928955154034237e-05   -4.829900567791812e-06
               C    -0.31021069582522165       0.6324842904226768      -3.3779819321099627   -3.89838538251427e-06  -1.6579339544195208e-05   3.5925608524057576e-06
               C     -1.9770678812671543       -1.093255796240235       -3.662253514960973  -1.943504514006003e-05    -5.55400223068922e-06   -2.434396192324377e-05
               C      0.5078766979475972      0.36877783725940255     -0.06283261051761466   5.664790359978229e-07   2.7346464822631687e-07  -1.0153370016240547e-05
               C    0.007785863879034653       0.5610682571072938       -4.732384905098623  3.5486241811879695e-06  -1.2526775215975678e-05    5.633715858951596e-07
               C     -1.6714714816957243       -1.177384994035481      -5.0228223533669585 -1.6979103900015003e-05   3.0141816140180506e-06   -2.323764758331569e-05
               C       -0.67382316607793      -0.3469954538171299       -5.556361622360813  -6.522344708182077e-06    5.564214928961532e-07   -3.908260187981168e-06
               H     -2.5652138846404515      -0.6927417412448554       -1.169146430741849   -5.08541832756683e-06    3.378494007841626e-05    1.659008691312206e-05
               H     -1.8518633573168155       0.9134954451944604       -1.061247366754628  1.1788402336175851e-05   1.9114813402718634e-05   1.6512361060360969e-07
               H    0.014064703864901914      -1.4866772794150196      -0.9861105715110143  -4.248612069067284e-06   1.7235882098915572e-05   1.6510823771810398e-05
               H     0.20827005397144077        1.341203278094452       -2.738329414908909 -6.7796031392882935e-06  -1.0850269814667893e-05    1.749606647271928e-05
               H      -2.752218517123839      -1.7345151706397208       -3.248156579321078  1.5049210718269152e-05   -3.383653878903604e-05   -1.319185253693904e-05
               H     -1.6996850999794322        -2.02874390675424       0.6103220165873744  2.1229114784327662e-05    2.124742003141594e-05  -1.3532218521887804e-05
               H     -0.3678906607593116      -1.5095712236049752       1.4491944434879611  -8.871158600413647e-06   1.8508027496092528e-06   -5.543996881091561e-06
               H       0.772541051176203        1.204112572255792      -5.1564200308575945 -1.1502951479984678e-05    7.113356916208086e-06   -3.952719993605835e-06
               H     -2.2031628241396835       -1.876531898712512       -5.664423968999423  -8.134134904369589e-06    1.196836272850506e-05   -2.465840910115886e-05
               H      2.0458833895428046       0.6607171953640972       1.0414193244466297   2.635205831984203e-05   3.9623226886991676e-06     6.10846183455125e-06
               H      -0.905483352445256      -1.0690384794382268      -7.3272754129875715   1.950906184702483e-05   -4.216490867653626e-06    1.965201390461002e-05
