24
tyro_dhscan_210deg                          -868.035669 eV 
               O     -3.2289378018863197       2.0435900804931366        -2.18031970169015 -1.0628735536940453e-05   -8.261863143705776e-07   2.8332153528221307e-05
               O    -0.41818298902506573     -0.35263736762541886       -6.885029202211576  -8.143444021146104e-06   -1.793919394045555e-05    3.745935851209228e-05
               O     -2.6440725392351765         3.35087914016315     -0.45403699022938315 -5.1116198161194874e-05  -3.1263815858065055e-05   -4.125749931798858e-05
               N     -1.7093296743735547        1.066235925836566       0.8203399685348775   4.217262642412746e-05    1.521500778036566e-05   -2.906319150876331e-05
               C     -1.5910398626653857     -0.16236600660351433       -1.321383443253298   7.385300308117293e-06  -3.9881022169880806e-05    6.234718438533418e-06
               C     -1.5080165648244799        1.212656822924075      -0.6314377070825635  1.1722614125124486e-05   1.2039595041941215e-05   2.4800243722401805e-05
               C     -1.2898687596298466      -0.1605545178335461       -2.806886223307576   8.683874764561783e-06   -5.443465767591971e-06    9.521943968585772e-06
               C     -0.3543960982057937       0.7095858982720381       -3.389039883653905   4.012907469549292e-06   1.9446458936297863e-05   1.3568579377924205e-05
               C     -1.9133061391868007      -1.1143812719996051      -3.6255243118956906   1.828494104641476e-06   -1.006519540325268e-06   1.3434973040536702e-05
               C     -2.5435998792869827       2.1927549188277875      -1.1807957746606383   5.554633408746788e-05   3.7924064500709845e-05    1.229800154947091e-06
               C    -0.06255748815270096       0.6508456128968494       -4.750844732631519  7.5185501097072425e-06  -6.6944974568374286e-06    8.947987437393139e-06
               C     -1.6334615497014526      -1.1904162684393194       -4.990148471428805 -5.2614418786711455e-06  -2.1570277462984583e-06   1.4664560298404927e-05
               C     -0.7065908039757348      -0.2999854791105302        -5.55450881369294 -1.9271492670822472e-05   -6.983873650309308e-06   1.1046849891727647e-05
               H     -0.8907859907099764      -0.8372128332659441      -0.8074805240541699  -1.673441454859555e-05    4.802313883777634e-07  -2.4630231971070326e-05
               H     -2.5868128412900866      -0.5831026561816105      -1.1538854305422828  2.6351640106594658e-05   2.7548272128853612e-05     -2.6791476468114e-07
               H     -0.5074770687816379       1.6623863640577115      -0.8374333488950852 -4.9678111680853165e-05  -2.5439185055202656e-05    3.544885831304338e-05
               H      0.1558187125671903       1.4508774726341498       -2.778025190753938    9.54507479778659e-07   -6.353425124735395e-06   -1.168731848110533e-05
               H      -2.638813299027742      -1.7981108874189362       -3.190734860456703  3.5034065281285688e-06   -4.795034314548542e-07     4.90500333951657e-06
               H     -0.9502506342662782        0.529416081091675       1.2334410390078665  -1.828724630549123e-05   -2.181140556085642e-06  -1.8101600800138564e-05
               H      -1.750125849542491       1.9814102829530869        1.264414776348884 -1.0232746891283489e-05  -2.3636648227169186e-05  -3.0387722330640135e-05
               H      0.6559232600409142       1.3341888969769853       -5.192246029490525   4.464381782151469e-09    3.298825358976458e-06  -2.8624967939849863e-05
               H     -2.1317565968900207      -1.9290932033960897       -5.614191487340361  1.1704626587872845e-05   2.4940029826593908e-05  -2.1142735118234818e-05
               H     -3.3144932137515735        3.920497500250133      -0.8643882991580755   5.016310463971935e-06   2.1759983197747595e-05   1.0859894690970333e-05
               H     -0.9412412581994988      -1.0407449655027807       -7.316963187462378   2.948174753551299e-06    7.633036678930505e-06  -1.5291742481824253e-05
