24
tyro_dhscan_100deg                          -868.077987 eV 
               O      0.8039149528695352        1.047553893323821      -0.4948216234059478 -1.5819150780576927e-05  -2.7739401257002705e-05   1.3905439172847023e-05
               O    -0.31811034239469893     -0.37235544773297763       -6.855664287142473  2.2449526840257622e-05   1.6031121489142022e-05   3.1344883675684794e-05
               O      1.4440316308499566      -0.7295302340591598       0.7115179511098613 -4.9258733170515884e-05    4.854368450791439e-05   1.8207587916880975e-06
               N     -1.3102459669301545      -1.3401582120132056       0.8116718256330764   7.610132355047766e-06   3.1144992254393022e-06  -2.1447469184602828e-05
               C        -1.6815621097731     -0.15358500528191352      -1.3423995732352036  1.7757564851835633e-05   -6.138506209313332e-07   2.6319202861679186e-05
               C     -0.6726837014643111      -0.9236988512589747      -0.4507583112142134  1.5320927164561363e-05  -1.2521073037174979e-05    3.286426790817488e-05
               C      -1.318821238127653      -0.2044964765834662       -2.812478061467549 -2.1761192061861556e-06  -1.6687220666857655e-05    -1.92933716574549e-05
               C     -0.3315185542835232       0.6413339947830439      -3.3448215394519343  1.1200095676553617e-05  -2.1973164044730065e-05   -9.407691722406906e-06
               C     -1.9686238528127782      -1.1067710308523417      -3.6654493717703427  -2.448109192607767e-05   -8.905502455955339e-06   -3.550284633078559e-05
               C      0.5582146929447769     -0.08691466832466102     -0.10770357205039535   6.375381837605822e-06    3.623054818560962e-06   3.6260992369558497e-06
               C   0.0057237300827853894       0.5859193307546718       -4.695436322071277  1.0616313486655396e-05   -3.172347386306675e-05   -4.461109750575786e-06
               C     -1.6436997619540843      -1.1749371835152937       -5.022283157037276 -2.8379066531813743e-05   3.4749146186679713e-06    -4.09789368959657e-05
               C     -0.6520024099475222     -0.32462100601433636       -5.535741918093789 -1.7402214589201037e-05   1.8055095113323137e-06    5.009027261415041e-07
               H     -2.6723058393717127      -0.5938701120662442      -1.1962172268234803 -1.2341119791054596e-05    3.675418238501359e-05    4.620762200494296e-05
               H     -1.7317042749750446       0.8837829845489246      -0.9983376109298436  1.0850574868442037e-05    5.184561702530382e-06    7.041406954792657e-05
               H     -0.3078527123265654       -1.815171285447535      -1.0137629283326322   2.002521821046927e-06   3.0337456536986578e-05    4.172770380302146e-06
               H     0.17388749863573688       1.3451057139113138       -2.689726737224527 -1.9360533364442796e-05  -1.1015697245407871e-05   1.2132962609611652e-05
               H     -2.7397385252584483      -1.7625411636636794      -3.2668274980484333  2.8255751116785458e-05   -3.726970474153764e-05   1.5577283657045074e-05
               H      -2.059810293395249       -2.003505331093938       0.6288910434797566  2.7057318712563087e-05   2.9270939507976973e-05  -3.9556986361921514e-05
               H     -0.6245497412444907      -1.7763735828131648       1.4251333730642197 -1.2493702848625275e-05   2.2603385699536586e-05  -1.5891230729757458e-05
               H      0.7681521514768835       1.2418672576586725       -5.103556219784597 -3.2710355824816284e-05  -2.6122042271322325e-05  -3.5605406866003307e-05
               H      -2.155836251061278      -1.8768363971190127        -5.67666994501817  2.9683289170560317e-05    9.187737153480538e-06   -8.462405442433172e-05
               H      2.1920080992132993     -0.13778758400201976       0.8926249427443771  2.1059660726147917e-05   -3.521413390837796e-05  -2.0732373400176048e-05
               H      -0.849570290752627      -1.0355811231384036       -7.315286142929663   4.183029405259507e-06    1.985421695578145e-05     6.86152147509845e-05
