24
tyro_dhscan_260deg                          -868.091340 eV 
               O      -4.452217476345247     -0.33432558484252073       -2.075265821285432  1.8445871975645352e-05   -1.953025410634834e-05   -6.865704231007235e-06
               O     -0.3430626603212169     -0.31307237509090335       -6.833425136153921  -1.320342074289277e-05    4.274036007791943e-07   -5.365038781033299e-06
               O      -4.988967977420687       1.6386937456325679      -1.1553037983091556 -2.6937119455461185e-05    6.967619747710405e-05   2.2322156546013898e-05
               N       -2.70109442266509        1.237160306027031       0.4527225307750686   4.915377133553234e-05  -2.9761634065249363e-05    2.453566374025316e-05
               C     -1.6854547953080183      -0.1865616761984414      -1.3147120216473214   7.187290858716531e-06  -1.7857188227606274e-05   -3.125926015114206e-05
               C     -2.6645758766016137       0.9691609622622023      -0.9955262275264593 -1.5833732348720765e-05  -3.8242703114818935e-06  -1.6433484511197327e-05
               C       -1.32755416396105     -0.24016273573185207      -2.7847935928247196  2.7542624217351827e-05    -2.49450846599112e-05  -1.7450283579315863e-05
               C     -0.3742589288182826       0.6464497220067844      -3.3099336141088083  3.8126002321525365e-05   -3.433864372549677e-05    6.327388748748656e-06
               C     -1.9514190861054523      -1.1531315644998033      -3.6458413247835644  3.0168452549463954e-05   -3.439975838475176e-05   2.9535377761124703e-07
               C      -4.084378546433655       0.6602284865182166      -1.4662269796995044  -5.815307250090923e-05   1.5442349596967002e-05   3.0040468515126398e-05
               C    -0.03985302017048976       0.6265071967328331       -4.662917660417628  -4.406562584099754e-06   3.6479218644296625e-05   2.3366341302422257e-05
               C       -1.62906513929111      -1.1870698168410876       -5.003519097860737  -9.337526541606019e-06    4.755355058667688e-05   -1.337606795052778e-05
               C     -0.6712248544324545      -0.2949845545421972       -5.511123842402326  2.1052956863365995e-05    7.478574420736758e-05    2.161598859575431e-05
               H     -0.7802840261743474     -0.04003909675854226      -0.7152832813870549  -8.682442464782223e-06    3.141371485773752e-05    1.220002362242164e-05
               H      -2.136114755660668      -1.1310211067389915        -0.99957041658097  -6.453765323290938e-05  -1.0466094626216169e-05   -6.245167766737161e-06
               H       -2.33049312705483       1.8765933644166113       -1.553174167261675 -5.6612122691464465e-06   1.8486142295208415e-05   1.8854829670548097e-05
               H     0.11455702227501906       1.3581096083465567       -2.647533589916888  -4.311673128826273e-05  -1.0402995927539698e-05   -2.858277718895947e-06
               H     -2.7012449635147235      -1.8327831216028772      -3.2522909092499046  -6.323707864789812e-06   -3.996047032199289e-05    -1.81035026882814e-05
               H     -1.7944944692977338       1.5664472047510636       0.7766552171932013   4.521860079222238e-05    6.444040104014991e-05   4.3131113701040544e-05
               H      -3.404741501255877       1.9423924310001996       0.6629672866783407   9.373728224676455e-06   -3.941467867698744e-05   -3.355706087479573e-05
               H      0.7002312479765559       1.3121297496230446       -5.062947889959051  -6.090644290625102e-05    -9.64335366344828e-06   -8.907112547117269e-07
               H     -2.1176700861220152      -1.8970741950745877       -5.667229156982425   2.525753770358162e-05  -4.6441411934339515e-05  -3.0459486152703358e-05
               H      -5.864359644012426       1.3722115736910834      -1.4793465931047454   2.455959784906854e-05    9.941422730594335e-06  -1.6989957907209394e-05
               H     -0.8522664492844217      -0.9902757630864483       -7.298057073184455  2.1013189508679542e-05   -4.766030640551197e-05  -2.8353246523823374e-06
