24
tyro_dhscan_160deg                          -868.028941 eV 
               O      -1.402061173771701       2.7340702634079608       -1.159199805343499   4.350440246114642e-05    2.719316161370459e-05    1.555564268870123e-05
               O     -0.3369200384600262     -0.42125375183054753       -6.896186806530139   1.598910247784641e-05   1.6965149817158568e-05  -1.6271328630119083e-05
               O     0.17971044877226047       2.6436043600499577       0.4283302778506665   3.633663091054151e-06  -1.3699093916152257e-05    7.695311671130898e-06
               N     -0.8218124376262622      0.06493053527858467       0.9540585161844904 -2.2870188197905224e-05   -1.552276471852799e-05    2.290330799903901e-06
               C     -1.6561575581713315     -0.12501781891396715      -1.3691924300034126 -1.5851890663381475e-05   1.3719210518042813e-06  -1.3828564712870233e-05
               C     -0.6131881942172823       0.5187361934041814     -0.43341989098102013  -2.176990756880097e-05    8.727829697824374e-06  -2.6120417591773797e-05
               C     -1.2641539468100946     -0.18904485669442372      -2.8323392415233184    -1.3321153518632e-05   2.1335000556968464e-05   1.2147851239411103e-05
               C     -0.2974024196114676       0.6534957183267746      -3.4028388486990138  6.8189827969079745e-06   -6.972930675946563e-06     9.48533575440446e-06
               C      -1.924076156677371      -1.1074768692793264      -3.6639992316900347  2.0756280768863267e-06   1.8560892818139663e-05    8.618854722670412e-06
               C     -0.6839710010637372          2.0456728856242      -0.4496726605804404  -2.988103910523962e-06    3.227055431175196e-06    4.612449960917963e-06
               C    0.016155692599006493       0.5773666047720067      -4.7593383561495415  1.8938320425572713e-05  -1.9851892736509595e-05    6.221401594592843e-06
               C     -1.6254315292024164      -1.1975481368513747       -5.023735656249309  -9.007205950266878e-06  -1.6813730936416165e-06    3.951575694494208e-06
               C     -0.6490490401582745     -0.35041138603039224       -5.572164188522507  5.4685461164741456e-06   -1.056465006790055e-05    -9.45641054783132e-06
               H     -1.8666395191689342      -1.1392677161022997      -1.0122198715823183  2.7205491300973084e-05   1.7427818965026614e-05    1.414429890684979e-05
               H      -2.598678125594027      0.42850802843270974       -1.269331274258996 -1.1906006771536381e-05  -1.9451286992731064e-05  -1.1163524158083618e-06
               H     0.40989132923493343      0.23947144889548658      -0.7812963193276357  -2.494557399575497e-06    1.662796266763795e-05  -3.1854362851789093e-06
               H     0.21675011392715976       1.3884022984833713       -2.789504093152343 -3.3978692868857426e-06   1.5157268409758143e-05   -2.692989492064879e-06
               H      -2.679275187741346       -1.765196375050131       -3.239506998707476   8.654770114463923e-06    1.529536526611536e-05   -8.655952481910575e-06
               H     -0.6549516849599936      -0.9359812984850592       1.0290496375091958  1.5424986992619385e-05   -2.533917572258493e-05   -1.181689248873657e-05
               H     -0.1877179681880434        0.554159918917908        1.582726271597395  -2.315935334060361e-06  -1.9033142768723258e-05   1.4182825526362856e-05
               H      0.7643519043817668       1.2345721381041552       -5.190819850021537  4.5517341011748275e-06   1.9466932584467095e-05   -8.444794459069023e-06
               H       -2.14413515967426       -1.915699675538686       -5.654929991234553  -2.692184484976692e-06   -4.207116104312661e-05   1.8372065577947508e-05
               H     0.07159246421698602       3.6065380409031316      0.36925981971844546 -2.3078462733262676e-05  -1.7904522481795716e-05   -5.753461611107579e-05
               H     -0.8759911420356719       -1.092052439824283       -7.335533578304255    -2.0572162135304e-05   1.0735635337867707e-05   4.1845811079045916e-05
