24
tyro_dhscan_240deg                          -868.079842 eV 
               O      -4.218485911659878       0.7347493503210358      -2.2320622957799934  -5.773375809717395e-05   -1.546686256480848e-05   -4.644266191851005e-05
               O     -0.3604734818194712     -0.33736643276790085       -6.843606648802601  1.9613443557979158e-05  -1.3868815812702717e-07    9.144539783674455e-06
               O      -4.239809975888701        2.555410723885891      -0.9222277209325991  2.0738684386824932e-05   2.2122507952340514e-05    4.018642133957289e-08
               N      -2.266365602540623       1.2920215053427746       0.6029946565539541    1.62252475525881e-05   2.4354701158612677e-06   -6.456094496644106e-06
               C     -1.6601353478361007     -0.16676777557227254      -1.3144398167036344   5.753548279974208e-06    -8.78920978212433e-06    4.120521514976855e-06
               C     -2.2275251034743557       1.1989548448997107      -0.8655511483021072   7.012140271191181e-06   -5.664861242773989e-06  -1.2337367120966725e-05
               C     -1.3293768612857269     -0.20580715385005344       -2.791041483481161 -1.6750051649028208e-06   4.2928794507096635e-06   2.5779296059617873e-06
               C    -0.36539678538696296       0.6611444827337466      -3.3305106577300587  -3.252735226216879e-07    3.428563980345655e-06   -9.380566251716284e-07
               C      -1.956292187372789      -1.1290101726862896       -3.638201237569079  -8.649497644244719e-06   5.0909675471458304e-06   7.0106023574503795e-06
               C     -3.6340878823232314        1.429856783272339      -1.4143331061382545   5.350711423420852e-06   3.8145916235986952e-06   -5.718269900441567e-06
               C    -0.03843783972693352       0.6224929138920892       -4.684636901563971  1.4173288304492286e-07  -1.4334973068659717e-05   1.1496155551275858e-06
               C     -1.6415673677610254      -1.1831489740251298      -4.9969628346750685 -1.1978683022857251e-05   -7.888444019713842e-06    3.762115962166684e-06
               C     -0.6817569386665301     -0.30263349047138616       -5.519992910876934  3.4024186378526225e-06  -2.0047440389833107e-05    5.063650604919351e-06
               H     -0.7576307703784205      -0.3688064544666131      -0.7234453662941527  -5.590388428432359e-06   -1.549302705799426e-05   1.8985088003842436e-05
               H      -2.380665885286365      -0.9518986793479789      -1.0726398644057125  1.7620154565739528e-05  -1.6271180940959106e-05   1.3450486088831435e-05
               H     -1.5840198815969806        2.005460387963816      -1.2926338173650425 -1.3725191944913773e-05    8.416258840327983e-06  -3.4180168967708465e-05
               H     0.13770847775121298       1.3751549654893143      -2.6811523458466997  -2.746063824625533e-06   2.2765736300521475e-05   -1.626613123229592e-05
               H      -2.709095105721794      -1.8002021141065159       -3.233563461811684  -3.903907358119791e-06   2.4369031649439624e-05   4.2867808112701195e-05
               H      -1.324230010909863       1.2800727031812353       0.9868140021181703    3.96221119168271e-06    -5.25709674834017e-06    3.970253555647134e-05
               H     -2.7322986701243117       2.1504993441763416       0.8901269181634627  2.1445209714619425e-06   -8.334490364720758e-06   -4.813185535167415e-06
               H       0.706125243486538       1.2966947375540503       -5.095718929099718 -1.0385482994728944e-05   2.8655347849311225e-06  -3.3060999564282765e-07
               H      -2.138227787456901      -1.8981920961725904       -5.649167770453246  -5.926100681172863e-06   1.1372721002161415e-06   -8.265801245325579e-06
               H      -5.122891196241523       2.6344748645525087        -1.31744668214106   6.561670084764528e-06  -1.3307762225474681e-05   1.2957943562369127e-05
               H     -0.8821001677793412      -1.0108092437980865       -7.299825396861855  1.4112868877279272e-05   3.0255222218086262e-05   -2.508467609196785e-05
